/*--------------------------------*- C++ -*----------------------------------*\
  =========                 |
  \\      /  F ield         | OpenFOAM: The Open Source CFD Toolbox
   \\    /   O peration     | Website:  https://openfoam.org
    \\  /    A nd           | Version:  6
     \\/     M anipulation  |
\*---------------------------------------------------------------------------*/
FoamFile
{
    version     2.0;
    format      ascii;
    class       dictionary;
    object      controlDict;
}
// * * * * * * * * * * * * * * * * * * * * * * * * * * * * * * * * * * * * * //


application     pimpleFoam;

startFrom       latestTime;

startTime       0;

stopAt          endTime;

endTime         3.2;    

deltaT          1e-5;

writeControl    adjustableRunTime;

writeInterval   0.05;

purgeWrite      0;

writeFormat     ascii;

writePrecision   10;

writeCompression off;

timeFormat      general;

timePrecision   6;

runTimeModifiable true; 

adjustTimeStep  yes;

maxCo           0.9;

functions
{
    #include "functions/residuals"
    #include "functions/yPlus"
    #include "functions/forceCoeffs"
}

// ************************************************************************* //
